Version 4
SHEET 1 2900 1052
WIRE 128 -288 32 -288
WIRE 160 -288 128 -288
WIRE 32 -240 32 -288
WIRE 32 -128 32 -160
WIRE 208 -32 32 -32
WIRE 576 -32 240 -32
WIRE 656 -32 576 -32
WIRE 720 -32 656 -32
WIRE 720 16 720 -32
WIRE 224 32 224 -16
WIRE 272 32 224 32
WIRE 304 32 272 32
WIRE 720 112 720 80
WIRE 32 128 32 -32
WIRE 576 128 576 -32
WIRE 720 224 720 192
WIRE 576 256 576 192
WIRE 720 336 720 304
WIRE 784 352 736 352
WIRE 848 352 784 352
WIRE 32 384 32 208
WIRE 576 384 576 336
WIRE 576 384 32 384
WIRE 720 384 720 368
WIRE 720 384 576 384
WIRE 32 448 32 384
FLAG 656 -32 o
FLAG 272 32 is
FLAG 32 -128 0
FLAG 128 -288 d
FLAG 784 352 iled
FLAG 32 448 0
SYMBOL Misc\\Gpoly 32 112 R0
SYMATTR InstName G1
SYMATTR Value value={v(d)**2*Vg**2/(4*v(o)*L1*fs)}
SYMBOL cap 560 128 R0
SYMATTR InstName Co
SYMATTR Value 1.2m
SYMBOL res 704 96 R0
SYMATTR InstName Rd
SYMATTR Value 16.4
SYMBOL Control\\idiode 704 16 R0
SYMATTR InstName U5
SYMBOL voltage 720 208 R0
WINDOW 0 44 34 Left 2
WINDOW 3 37 68 Left 2
SYMATTR InstName Vd
SYMATTR Value 63.5
SYMBOL Control\\isense 224 -32 R0
WINDOW 0 3 -29 Bottom 2
SYMATTR InstName U7
SYMBOL voltage 32 -256 R0
WINDOW 0 49 39 Left 2
WINDOW 3 40 72 Left 2
SYMATTR InstName V1
SYMATTR Value 0.166
SYMBOL Control\\isense 720 352 M90
SYMATTR InstName U8
SYMBOL res 560 240 R0
SYMATTR InstName Resr
SYMATTR Value 0.05
TEXT 472 -224 Left 2 !.param L1=228e-6\n.param Vg=sqrt(2)*230\n.param fs=100e3
TEXT 198 -208 Left 2 !.tran 300m uic
