Version 4
SHEET 1 2900 1052
WIRE 192 -368 48 -368
WIRE 256 -368 192 -368
WIRE 48 -336 48 -368
WIRE 48 -240 48 -256
WIRE 48 -128 48 -160
WIRE 144 -32 48 -32
WIRE 576 -32 176 -32
WIRE 656 -32 576 -32
WIRE 720 -32 656 -32
WIRE 720 16 720 -32
WIRE 160 32 160 -16
WIRE 208 32 160 32
WIRE 240 32 208 32
WIRE 720 112 720 80
WIRE 48 128 48 -32
WIRE 576 128 576 -32
WIRE 720 224 720 192
WIRE 576 256 576 192
WIRE 720 336 720 304
WIRE 784 352 736 352
WIRE 848 352 784 352
WIRE 48 384 48 208
WIRE 576 384 576 336
WIRE 576 384 48 384
WIRE 720 384 720 368
WIRE 720 384 576 384
WIRE 48 448 48 384
FLAG 656 -32 o
FLAG 208 32 is
FLAG 48 -128 0
FLAG 192 -368 d
FLAG 784 352 iled
FLAG 48 448 0
SYMBOL Misc\\Gpoly 48 112 R0
SYMATTR InstName G1
SYMATTR Value value={v(d)**2*Vg**2/(4*v(o)*L1*fs)}
SYMBOL cap 560 128 R0
SYMATTR InstName Co
SYMATTR Value 1.2m
SYMBOL res 704 96 R0
SYMATTR InstName Rd
SYMATTR Value 16.4
SYMBOL Control\\idiode 704 16 R0
SYMATTR InstName U5
SYMBOL voltage 720 208 R0
WINDOW 0 44 34 Left 2
WINDOW 3 37 68 Left 2
SYMATTR InstName Vd
SYMATTR Value 63.5
SYMBOL Control\\isense 160 -32 R0
SYMATTR InstName U7
SYMBOL voltage 48 -256 R0
WINDOW 0 49 39 Left 2
WINDOW 3 40 72 Left 2
SYMATTR InstName V1
SYMATTR Value 0.166
SYMBOL Control\\isense 720 352 M90
WINDOW 0 12 -52 VBottom 2
SYMATTR InstName U8
SYMBOL res 560 240 R0
SYMATTR InstName Resr
SYMATTR Value 0.05
SYMBOL voltage 48 -352 R0
WINDOW 0 43 43 Left 2
WINDOW 3 44 77 Left 2
WINDOW 123 0 0 Left 0
WINDOW 39 0 0 Left 0
SYMATTR InstName Vsin1
SYMATTR Value SINE(0 0.02 {Freq})
TEXT 608 -208 Left 2 !.param L1=228e-6\n.param Vg=sqrt(2)*230\n.param fs=100e3
TEXT 968 56 Left 2 !.measure Aavg              avg       V(iled)                                                                ; average output voltage\n.measure Bavg              avg       V(d)                                                                   ; average input signal\n.measure Are                  avg       2*(V(iled)-Aavg)*cos(360*Freq*time)      ; A real part\n.measure Aim                 avg       2*(V(iled)-Aavg)*sin(360*Freq*time)        ; A imag part\n.measure Bre                  avg       2*(V(d)-Bavg)*cos(360*Freq*time)         ; B real part\n.measure Bim                 avg        2*(V(d)-Bavg)*sin(360*Freq*time)          ; B imag part\n.measure Amag             param   hypot(Are,Aim)                                              ; A magnitude\n.measure Bmag             param   hypot(Bre,Bim)                                              ; B magnitude\n.measure Aphi                param   atan2(Aim, Are)                                             ; A phase\n.measure Bphi                param   atan2(Bim, Bre)                                             ; B phase\n.measure GainMag       param    20*log10(Amag/Bmag)                              ; Gain magnitude\n.measure GainPhi          param    Bphi - Aphi                                                       ; Gain phase
TEXT 1400 -72 Left 2 !.save V(iled) V(d)\n.option numdgt=15   ; double precision for data\n.option nomarch       ; do not plot marching waveforms
TEXT 960 -64 Left 2 !.step dec param Freq 1 50k 5
TEXT 960 -176 Left 2 !.param t0=500m\n.tran 0 {t0+5/Freq} {t0} 0.1u
